Version 4
SHEET 1 1316 680
WIRE 976 -352 704 -352
WIRE 976 -304 976 -352
WIRE 704 -208 704 -352
WIRE 704 -208 592 -208
WIRE 832 -208 704 -208
WIRE 592 -128 592 -208
WIRE 832 -128 832 -208
WIRE 832 0 832 -48
WIRE 1008 0 832 0
WIRE 1248 0 1072 0
WIRE 832 48 832 0
WIRE 832 48 736 48
WIRE 352 96 192 96
WIRE 416 96 400 96
WIRE 576 96 416 96
WIRE 592 96 592 -48
WIRE 592 96 576 96
WIRE 672 96 592 96
WIRE 1248 112 1248 0
WIRE 736 160 736 144
WIRE 864 160 736 160
WIRE 192 176 192 96
WIRE 592 176 592 96
WIRE 736 176 736 160
WIRE 864 192 864 160
WIRE 192 320 192 256
WIRE 592 320 592 256
WIRE 592 320 192 320
WIRE 672 320 592 320
WIRE 736 320 736 256
WIRE 736 320 672 320
WIRE 864 320 864 256
WIRE 864 320 736 320
WIRE 1248 320 1248 192
WIRE 1248 320 864 320
WIRE 672 352 672 320
FLAG 192 96 Vin
FLAG 576 96 Vb
FLAG 976 -224 0
FLAG 672 352 0
FLAG 1248 0 Vout
SYMBOL voltage 192 160 R0
WINDOW 123 0 0 Left 0
WINDOW 39 0 0 Left 0
SYMATTR InstName V1
SYMATTR Value SINE(0 20m 1k)
SYMBOL cap 416 80 R90
WINDOW 0 0 32 VBottom 2
WINDOW 3 32 32 VTop 2
SYMATTR InstName C1
SYMATTR Value 10µ
SYMBOL res 576 160 R0
SYMATTR InstName R1
SYMATTR Value 3.3k
SYMBOL res 576 -144 R0
SYMATTR InstName R2
SYMATTR Value 33k
SYMBOL res 816 -144 R0
SYMATTR InstName R3
SYMATTR Value 10k
SYMBOL npn 672 48 R0
SYMATTR InstName Q1
SYMATTR Value BC547B
SYMBOL voltage 976 -320 R0
WINDOW 123 0 0 Left 0
WINDOW 39 0 0 Left 0
SYMATTR InstName V2
SYMATTR Value 15
SYMBOL res 720 160 R0
SYMATTR InstName R4
SYMATTR Value 1k
SYMBOL cap 848 192 R0
SYMATTR InstName C2
SYMATTR Value 47µ
SYMBOL cap 1072 -16 R90
WINDOW 0 0 32 VBottom 2
WINDOW 3 32 32 VTop 2
SYMATTR InstName C3
SYMATTR Value 10µ
SYMBOL res 1232 96 R0
SYMATTR InstName R5
SYMATTR Value 10k
TEXT 144 8 Left 2 ;19BCE1027 Aryaman Mishra
TEXT 152 -128 Left 2 !.tran 5m
