Version 4
SHEET 1 3204 680
WIRE 2400 -304 1168 -304
WIRE 1264 -192 1216 -192
WIRE 1392 -192 1344 -192
WIRE 1216 -96 1216 -192
WIRE 1280 -96 1216 -96
WIRE 1392 -96 1392 -192
WIRE 1392 -96 1328 -96
WIRE 144 -48 -32 -48
WIRE 240 -48 144 -48
WIRE 304 -48 240 -48
WIRE 640 -48 464 -48
WIRE 816 -48 640 -48
WIRE 1008 -48 880 -48
WIRE 1168 -48 1168 -304
WIRE 1168 -48 1008 -48
WIRE 1264 -48 1168 -48
WIRE 1344 -48 1328 -48
WIRE 1440 -48 1344 -48
WIRE 1568 -48 1504 -48
WIRE 1616 -48 1568 -48
WIRE 1728 -48 1616 -48
WIRE 1952 -48 1808 -48
WIRE 2144 -48 2016 -48
WIRE 640 -32 640 -48
WIRE 1616 -16 1616 -48
WIRE 1168 0 1168 -48
WIRE 2144 32 2144 -48
WIRE 2640 32 2352 32
WIRE 2704 32 2640 32
WIRE 2992 32 2880 32
WIRE 3056 32 2992 32
WIRE 3104 32 3056 32
WIRE -32 48 -32 -48
WIRE 1456 80 1360 80
WIRE 1552 80 1536 80
WIRE 2400 80 2400 -304
WIRE 2544 80 2400 80
WIRE 2704 80 2704 32
WIRE 384 96 384 48
WIRE 640 96 640 48
WIRE 640 96 384 96
WIRE 1360 96 1360 80
WIRE 1712 96 1584 96
WIRE 2352 112 2352 32
WIRE 144 128 144 -48
WIRE 640 128 640 96
WIRE 1008 128 1008 -48
WIRE 1552 128 1552 80
WIRE 1712 128 1552 128
WIRE 1712 160 1408 160
WIRE 2000 160 1952 160
WIRE 3104 192 3104 32
WIRE 1616 208 1616 64
WIRE 1712 208 1616 208
WIRE 2880 208 2880 32
WIRE 2992 208 2992 32
WIRE -32 224 -32 112
WIRE 1360 224 1360 176
WIRE 1408 224 1408 160
WIRE 1408 224 1360 224
WIRE 1456 224 1408 224
WIRE 1584 224 1584 96
WIRE 1584 224 1520 224
WIRE 2544 224 2544 80
WIRE 2704 224 2704 160
WIRE 2704 224 2544 224
WIRE 1616 240 1616 208
WIRE 1712 240 1616 240
WIRE 1984 256 1952 256
WIRE 2000 256 1984 256
WIRE 2176 256 2080 256
WIRE 2304 256 2304 192
WIRE 2304 256 2176 256
WIRE 2352 256 2352 208
WIRE 2496 256 2352 256
WIRE 400 288 240 288
WIRE 640 288 640 208
WIRE 640 288 480 288
WIRE 1616 288 1616 240
WIRE 1712 288 1616 288
WIRE 2352 304 2352 256
WIRE 1712 320 1616 320
WIRE 2304 320 2256 320
WIRE 2704 336 2704 224
WIRE 1616 352 1616 320
WIRE 1712 352 1616 352
WIRE 1984 352 1952 352
WIRE 2000 352 1984 352
WIRE 2224 352 2080 352
WIRE 2256 352 2256 320
WIRE 2256 352 2224 352
WIRE 1616 400 1616 352
WIRE 1712 400 1616 400
WIRE 2224 400 2224 352
WIRE 2768 416 2768 80
WIRE 2800 416 2800 80
WIRE -32 448 -32 304
WIRE 144 448 144 192
WIRE 144 448 -32 448
WIRE 240 448 240 288
WIRE 240 448 144 448
WIRE 1008 448 1008 208
WIRE 1008 448 240 448
WIRE 1168 448 1168 64
WIRE 1168 448 1008 448
WIRE 1232 448 1168 448
WIRE 1616 448 1616 400
WIRE 1616 448 1232 448
WIRE 1744 448 1616 448
WIRE 2352 480 2352 400
WIRE 2656 480 2352 480
WIRE 2704 480 2704 416
WIRE 2704 480 2656 480
WIRE 2880 480 2880 288
WIRE 2992 480 2992 272
WIRE 2992 480 2880 480
WIRE 3104 480 3104 272
WIRE 3104 480 2992 480
WIRE 1744 528 1744 448
WIRE 2176 528 2176 320
WIRE 2176 528 1744 528
WIRE 2224 528 2224 464
WIRE 2224 528 2176 528
WIRE 2496 528 2496 256
WIRE 2496 528 2224 528
WIRE 1008 544 1008 448
FLAG 2144 32 0
FLAG 1568 -48 SupplyToIC
FLAG 640 -48 Vregulated
FLAG 240 -48 Vsolar
FLAG 1008 544 0
FLAG 1936 160 13
FLAG 1936 256 10
FLAG 1936 352 11
FLAG 1728 96 1
FLAG 1728 128 2
FLAG 1728 160 3
FLAG 1728 208 5
FLAG 1728 240 4
FLAG 1728 288 6
FLAG 1728 320 8
FLAG 1728 352 12
FLAG 1728 400 9
FLAG 1232 448 0V
FLAG 1984 256 VQ
FLAG 1984 352 VQbar
FLAG 2656 480 Vp2
FLAG 2640 32 Vp1
FLAG 3056 32 Vout
FLAG 2000 160 N/C
SYMBOL voltage -32 208 R0
WINDOW 123 0 0 Left 0
WINDOW 39 0 0 Left 0
SYMATTR InstName V1
SYMATTR Value 15
SYMBOL diode -16 112 R180
WINDOW 0 24 64 Left 2
WINDOW 3 24 0 Left 2
SYMATTR InstName D1
SYMATTR Value RR1LAM6S
SYMBOL cap 128 128 R0
SYMATTR InstName C1
SYMATTR Value 0.1µ
SYMBOL LM317 384 -16 R0
SYMATTR InstName U1
SYMBOL res 624 -48 R0
SYMATTR InstName R1
SYMATTR Value 220
SYMBOL res 624 112 R0
SYMATTR InstName R2
SYMATTR Value 680
SYMBOL res 496 272 R90
WINDOW 0 0 56 VBottom 2
WINDOW 3 32 56 VTop 2
SYMATTR InstName R3
SYMATTR Value 2k
SYMBOL zener 816 -32 R270
WINDOW 0 36 32 VTop 2
WINDOW 3 -4 32 VBottom 2
SYMATTR InstName D2
SYMATTR Value SS3P5
SYMBOL voltage 1008 112 R0
SYMATTR InstName V2
SYMATTR Value {VDD}
SYMBOL polcap 1152 0 R0
SYMATTR InstName C2
SYMATTR Value 220µ
SYMBOL sw 1360 -48 R90
SYMATTR InstName S1
SYMBOL voltage 1248 -192 R270
WINDOW 0 32 56 VTop 2
WINDOW 3 -32 56 VBottom 2
SYMATTR InstName V3
SYMATTR Value 1
SYMBOL diode 1440 -32 R270
WINDOW 0 32 32 VTop 2
WINDOW 3 0 32 VBottom 2
SYMATTR InstName D3
SYMATTR Value RR1LAM6S
SYMBOL res 1600 -32 R0
WINDOW 3 30 88 Left 2
SYMATTR Value 330
SYMATTR InstName R4
SYMBOL res 1824 -64 R90
WINDOW 0 0 56 VBottom 2
WINDOW 3 32 56 VTop 2
SYMATTR InstName R5
SYMATTR Value 820
SYMBOL LED 1952 -32 R270
WINDOW 0 72 32 VTop 2
WINDOW 3 0 32 VBottom 2
SYMATTR InstName LED_for_SupplyOut
SYMATTR Value LXK2-PW14
SYMBOL CD4047B 1824 112 R0
SYMATTR InstName U2
SYMATTR SpiceLine VDD= VDD  SPEED=1.0  TRIPDT=5e-9
SYMBOL res 1552 64 R90
WINDOW 0 0 56 VBottom 2
WINDOW 3 32 56 VTop 2
SYMATTR InstName R6
SYMATTR Value 80k
SYMBOL res 1376 192 R180
WINDOW 0 36 76 Left 2
WINDOW 3 36 40 Left 2
SYMATTR InstName VR2
SYMATTR Value 400k
SYMBOL cap 1520 208 R90
WINDOW 0 0 32 VBottom 2
WINDOW 3 32 32 VTop 2
SYMATTR InstName C3
SYMATTR Value 0.01µ
SYMBOL res 2096 240 R90
WINDOW 0 0 56 VBottom 2
WINDOW 3 32 56 VTop 2
SYMATTR InstName R8
SYMATTR Value 220
SYMBOL res 2096 336 R90
WINDOW 0 0 56 VBottom 2
WINDOW 3 32 56 VTop 2
SYMATTR InstName R9
SYMATTR Value 220
SYMBOL nmos 2304 112 R0
SYMATTR InstName M1
SYMATTR Value IRF530
SYMBOL nmos 2304 400 M180
SYMATTR InstName M2
SYMATTR Value IRF530
SYMBOL cap 2160 256 R0
SYMATTR InstName C4
SYMATTR Value 30µ
SYMBOL cap 2208 400 R0
SYMATTR InstName C5
SYMATTR Value 30µ
SYMBOL ind2 2688 64 R0
SYMATTR InstName L1
SYMATTR Value 50m
SYMATTR Type ind
SYMBOL ind2 2688 320 R0
SYMATTR InstName L2
SYMATTR Value 50m
SYMATTR Type ind
SYMBOL ind2 2896 304 R180
WINDOW 0 36 80 Left 2
WINDOW 3 36 40 Left 2
SYMATTR InstName L3
SYMATTR Value 18
SYMATTR Type ind
SYMBOL cap 2976 208 R0
SYMATTR InstName C6
SYMATTR Value 0.022µ
SYMBOL res 3088 176 R0
SYMATTR InstName R7
SYMATTR Value 30k
TEXT -48 -272 Left 2 ;19BCE1027 Aryaman Mishra
TEXT 416 -280 Left 2 !.include LM317.sub
TEXT 432 -192 Left 2 !.model SW SW()
TEXT 440 -144 Left 2 !.tran 0 1 0 0.5
TEXT 320 -352 Left 2 !.param VDD = 12 SPEED = 1.0 TRIPDT = 5e-9
TEXT 416 -320 Left 2 !.include CD4047B.sub
TEXT 424 -240 Left 2 !.include cd4000.lib
TEXT 2728 -32 Left 2 !K L1 L2 L3 1
RECTANGLE Normal 2960 432 2608 64 2
