Version 4
SHEET 1 880 680
WIRE 144 64 -16 64
WIRE 432 64 224 64
WIRE -16 112 -16 64
WIRE 432 112 432 64
WIRE -16 224 -16 192
WIRE 128 224 -16 224
WIRE 432 224 432 176
WIRE 432 224 128 224
WIRE 128 272 128 224
FLAG 128 272 0
SYMBOL voltage -16 96 R0
WINDOW 123 24 124 Left 2
WINDOW 39 0 0 Left 0
SYMATTR Value2 AC 10
SYMATTR InstName V1
SYMATTR Value ""
SYMBOL res 240 48 R90
WINDOW 0 0 56 VBottom 2
WINDOW 3 32 56 VTop 2
SYMATTR InstName R1
SYMATTR Value 1
SYMBOL cap 416 112 R0
SYMATTR InstName C1
SYMATTR Value 4700µ
TEXT -48 296 Left 2 !.ac dec 100 100 10Meg
TEXT -64 -16 Left 2 ;ARYAMAN MISHRA 19BCE1027
