Version 4
SHEET 1 880 680
WIRE 144 128 -16 128
WIRE 432 128 224 128
WIRE -16 176 -16 128
WIRE 432 176 432 128
WIRE -16 288 -16 256
WIRE 128 288 -16 288
WIRE 432 288 432 256
WIRE 432 288 128 288
WIRE 128 336 128 288
FLAG 128 336 0
SYMBOL voltage -16 160 R0
WINDOW 123 24 124 Left 2
WINDOW 39 0 0 Left 0
SYMATTR Value2 AC 1
SYMATTR InstName V1
SYMATTR Value ""
SYMBOL ind 128 144 R270
WINDOW 0 32 56 VTop 2
WINDOW 3 5 56 VBottom 2
SYMATTR InstName L1
SYMATTR Value 10m
SYMBOL res 416 160 R0
SYMATTR InstName R1
SYMATTR Value 100
TEXT -48 360 Left 2 !.ac dec 100 100 10Meg
TEXT -64 48 Left 2 ;ARYAMAN MISHRA 19BCE1027
