Version 4
SHEET 1 880 680
WIRE 656 -80 272 -80
WIRE 224 0 96 0
WIRE 272 16 272 -80
WIRE 368 16 272 16
WIRE 224 32 224 0
WIRE 368 64 368 16
WIRE 368 64 272 64
WIRE 96 128 96 0
WIRE 96 128 -64 128
WIRE 272 144 272 112
WIRE 352 144 272 144
WIRE -64 176 -64 128
WIRE 272 176 272 144
WIRE 656 176 656 -80
WIRE 368 224 272 224
WIRE 96 256 96 128
WIRE 224 256 96 256
WIRE 272 336 272 272
WIRE 368 336 368 224
WIRE 368 336 272 336
WIRE 272 384 272 336
WIRE 288 384 272 384
WIRE -64 416 -64 256
WIRE 288 416 288 384
WIRE 288 416 -64 416
WIRE 656 416 656 256
WIRE 656 416 288 416
WIRE 288 480 288 416
FLAG 288 480 0
FLAG -64 128 VIN
IOPIN -64 128 In
FLAG 352 144 VOUT
IOPIN 352 144 Out
SYMBOL voltage -64 160 R0
WINDOW 123 0 0 Left 0
WINDOW 39 0 0 Left 0
SYMATTR InstName V2
SYMATTR Value 1.2
SYMBOL voltage 656 160 R0
WINDOW 123 0 0 Left 0
WINDOW 39 0 0 Left 0
SYMATTR InstName V1
SYMATTR Value 1.2
SYMBOL CMOSN 224 176 R0
SYMATTR InstName M2
SYMBOL CMOSP 224 112 M180
SYMATTR InstName M1
TEXT -192 32 Left 2 !.dc V2 0 1.2
TEXT -192 80 Left 2 !.include ibm130.lib
