Version 4
SHEET 1 888 680
WIRE 192 256 16 256
WIRE 416 256 272 256
WIRE 608 256 512 256
WIRE 800 256 688 256
WIRE 416 288 416 256
WIRE 512 288 512 256
WIRE 16 336 16 256
WIRE 800 368 800 256
WIRE 16 480 16 416
WIRE 464 480 464 352
WIRE 464 480 16 480
WIRE 496 480 464 480
WIRE 800 480 800 448
WIRE 800 480 496 480
WIRE 496 512 496 480
FLAG 496 512 0
SYMBOL npn 512 352 M270
SYMATTR InstName Q1
SYMATTR Value BC547B
SYMBOL voltage 16 432 R180
WINDOW 0 24 96 Left 2
WINDOW 3 24 16 Left 2
WINDOW 123 0 0 Left 0
WINDOW 39 0 0 Left 0
SYMATTR InstName V1
SYMATTR Value 500m
SYMBOL voltage 800 352 R0
WINDOW 123 0 0 Left 0
WINDOW 39 0 0 Left 0
SYMATTR InstName V2
SYMATTR Value 0
SYMBOL res 288 240 R90
WINDOW 0 0 56 VBottom 2
WINDOW 3 32 56 VTop 2
SYMATTR InstName R1
SYMATTR Value 1k
SYMBOL res 704 240 R90
WINDOW 0 0 56 VBottom 2
WINDOW 3 32 56 VTop 2
SYMATTR InstName R2
SYMATTR Value 1k
TEXT -80 32 Left 2 ;19BCE1027
TEXT -88 64 Left 2 ;Aryaman Mishra
TEXT 16 144 Left 2 !.dc V2 -1 20 0.01 V1 500m 600m 20m
