Version 4
SHEET 1 916 680
WIRE 656 -16 64 -16
WIRE 656 32 656 -16
WIRE 784 32 656 32
WIRE 656 48 656 32
WIRE 608 64 496 64
WIRE 784 96 784 32
WIRE 784 96 656 96
WIRE 656 256 656 144
WIRE 784 256 656 256
WIRE 64 320 64 -16
WIRE 656 320 656 256
WIRE 496 416 496 64
WIRE 64 560 64 400
WIRE 496 560 496 496
WIRE 496 560 64 560
WIRE 656 560 656 400
WIRE 656 560 496 560
WIRE 496 608 496 560
FLAG 496 608 0
FLAG 784 256 V_out
IOPIN 784 256 Out
SYMBOL voltage 64 304 R0
WINDOW 123 0 0 Left 0
WINDOW 39 0 0 Left 0
SYMATTR InstName V_DD
SYMATTR Value 1.5
SYMBOL voltage 496 400 R0
WINDOW 123 0 0 Left 0
WINDOW 39 0 0 Left 0
SYMATTR InstName Vin
SYMATTR Value PULSE(0 1.5 0 0.5n 0.5n 10n 20n)
SYMBOL pmos4 608 144 M180
SYMATTR InstName M1
SYMBOL res 640 304 R0
SYMATTR InstName R1
SYMATTR Value 5Meg
TEXT 32 568 Left 2 !.tran 80n
TEXT 176 -80 Left 2 ;ARYAMAN MISHRA 19BCE1027 TASK 1.2
